** MATERIALS
** 
*Material, name=DP1000
*Depvar
     2,
*User Material, constants=3176
** Young's Modulus, Poisson Ratio
 200000,        0.3,          0.0,         0.0,            0.0,            0.0,         0.0,   0.
** Flow curves along 0, 45, 90 and biaxial; r-values along 0, 45 and 90
0.0,      654.0112405395689,      599.1869924508186,      532.2041528106112,      596.1473446,      0.3961640965328839,      0.3447016950309489,      0.4823122157890935
0.00011,      751.6147684417588,      645.3750988729294,      619.6933139184264,      665.51457,      0.4041761399821709,      0.361064415,      0.4907677336336533
0.0002,      756.9049194,      667.9920377976521,      646.4067986535919,      684.8239484,      0.4105437054017922,      0.3740600158899383,      0.4975082483193347
0.0003,      760.7601115209211,      684.4090926948372,      665.7268608149943,      698.8262894,      0.4174267125146089,      0.3880977561691594,      0.5048150270396121
0.0004,      763.6860079237752,      695.5892649327027,      678.8143268200962,      708.4197162,      0.4241135659597878,      0.4017244597672089,      0.5119342998974759
0.0005,      766.0987697,      703.9512651140715,      688.6425402178899,      715.66096,      0.430610304,      0.4149521440879766,      0.5188709080656153
0.0006,      768.1847239971655,      710.7408391561722,      696.7320827657695,      721.5996213,      0.4369227782361066,      0.4277925038723396,      0.5256295771329818
0.0007,      770.0436562105592,      716.5569773915797,      703.7870166908501,      726.7361569,      0.4430566550683731,      0.440256919,      0.5322149195382977
0.0008,      771.7353220839434,      721.6943973667792,      710.1312561676743,      731.3138432,      0.4490174258258407,      0.4523564615566755,      0.5386314369623761
0.0009,      773.2983718965168,      726.3131361259912,      715.9269267536545,      735.4628927,      0.45481041,      0.4641019042004046,      0.5448835226794344
0.001,      774.75926,      730.5123471430745,      721.2682913512681,      739.2630614,      0.4604407614326736,      0.4755037264430939,      0.5509754638680135
0.002,      786.3289862456312,      759.2427291966262,      759.0938433723309,      765.977072,      0.5088245065964774,      0.5727328036558106,      0.603958676
0.003,      795.3320111,      776.6024674280484,      782.1963916840938,      782.6833344,      0.5455620669072633,      0.645209034,      0.6449380374915066
0.004,      803.1505874475704,      789.2512984718911,      798.6664507673909,      795.0799088,      0.5737472873513023,      0.6995652320718335,      0.6767702506439832
0.005,      810.2269696962835,      799.3947209069496,      811.5068879951594,      805.1308249,      0.5956347324100125,      0.7407474097395834,      0.7016605789194443
0.01,      839.2254455,      834.1972134817012,      852.7826676877484,      840.100635,      0.6548854397620119,      0.8475370153527138,      0.7688607117165347
0.011,      844.1390927154214,      839.4964552273897,      858.7370228,      845.4672565,      0.6615403275640226,      0.8596616240459127,      0.7763139010910436
0.012,      848.8239369706282,      844.4531533674786,      864.2437813192251,      850.4935063,      0.6673178326745575,      0.8704626675565947,      0.7827786501812284
0.013,      853.2972369232508,      849.1108746,      869.3678636480913,      855.2217124,      0.6724039631919982,      0.8802700585818997,      0.788477321
0.014,      857.5735561835579,      853.5033538916769,      874.1589449200065,      859.6848022,      0.6769365125134453,      0.8893054404251757,      0.7935725970877385
** ... 376 like lines cut
*Density
 7.85e-09,