** MATERIALS
** 
*Material, name=DP1000
*Depvar
     2,
*User Material, constants=3168
** Young's Modulus, Poisson Ratio
 210000,        0.3,          0.0,         0.0,            0.0,            0.0,         0.0,   0.
** Flow curves along 0, 45, 90 and biaxial; r-values along 0, 45 and 90
0.0,      532.2041528106112,      599.1869924508186,      532.2041528106112,      744.8663847612112,      0.3961640965328839,      0.3447016950309489,      0.4823122157890935
0.00011,      716.3314723244538,      615.0790460592292,      590.6028494744828,      750.7824909095283,      0.4041761399821709,      0.361064414671759,      0.4907677336336533
0.0002,      726.8866408303927,      641.4999771278211,      620.7707922967174,      694.7052301578947,      0.4105437054017922,      0.3740600158899383,      0.4975082483193347
0.0003,      734.3610870481922,      660.6595136701326,      642.6255711644725,      671.9371115386912,      0.4174267125146089,      0.3880977561691594,      0.5048150270396121
0.0004,      739.8680045122503,      673.8950773827315,      657.6433196466785,      656.7725759631398,      0.4241135659597878,      0.4017244597672089,      0.5119342998974759
0.0005,      744.2839946980629,      683.9061494459936,      669.0333427397239,      649.8035761955122,      0.430610304442602,      0.4149521440879766,      0.5188709080656153
0.0006,      748.0034888669651,      692.0687313368301,      678.4280036220373,      647.8842273736631,      0.4369227782361066,      0.4277925038723396,      0.5256295771329818
0.0007,      751.2385161236255,      699.0580288171187,      686.5999217339667,      644.0441029429445,      0.4430566550683731,      0.440256918903259,      0.5322149195382977
0.0008,      754.1164351791737,      705.2179557641384,      693.9188036183023,      646.6229569915424,      0.4490174258258407,      0.4523564615566755,      0.5386314369623761
0.0009,      756.7198323946739,      710.7419006810735,      700.5783585075974,      646.2379651811962,      0.454810410078529,      0.4641019042004046,      0.5448835226794344
0.001,      759.1053581705562,      715.7524479444397,      706.6951669993654,      648.6468343946894,      0.4604407614326736,      0.4755037264430939,      0.5509754638680135
0.002,      776.5239291644608,      749.7754217102517,      749.6283924040695,      689.7620845530874,      0.5088245065964774,      0.5727328036558106,      0.603958675980806
0.003,      788.6302474852432,      770.0585259544719,      775.6053137224498,      728.481825565867,      0.5455620669072633,      0.645209033982141,      0.6449380374915066
0.004,      798.4213573131683,      784.6039121875688,      793.9636247901246,      762.5873823113552,      0.5737472873513023,      0.6995652320718335,      0.6767702506439832
0.005,      806.8558977227063,      796.0687181444334,      808.1304907277237,      783.9557901162192,      0.5956347324100125,      0.7407474097395834,      0.7016605789194443
0.01,      838.7974761048872,      833.771808296183,      852.3477847091297,      820.3789706446603,      0.6548854397620119,      0.8475370153527138,      0.7688607117165347
0.011,      843.9380166175215,      839.2964850176522,      858.5324694582466,      826.9175010266374,      0.6615403275640226,      0.8596616240459127,      0.7763139010910436
0.012,      848.7896931514922,      844.4190858773982,      864.208915422485,      833.1179765338254,      0.6673178326745575,      0.8704626675565947,      0.7827786501812284
0.013,      853.3826322703303,      849.1958509993982,      869.4548672937655,      839.0045349964645,      0.6724039631919982,      0.8802700585818997,      0.788477320623322
0.014,      857.7412719662175,      853.6702736642939,      874.3299043095062,      844.5966672074446,      0.6769365125134453,      0.8893054404251757,      0.7935725970877385
** ... 376 like lines cut
*Density
 7.85e-09,
