** MATERIALS
** 
*Material, name=DP1000
*Depvar
     2,
*User Material, constants=3176
** Young's Modulus, Poisson Ratio
 200000,        0.3,          0.0,         0.0,            0.0,            0.0,         0.0,   0.
** Flow curves along 0, 45, 90 and biaxial; r-values along 0, 45 and 90
0.0,      420.4427462177701,      343.6680505,      303.0151566,      352.698501,      0.3961640965328839,      0.3447016950309489,      0.4823122157890935
0.00011,      536.8129,      604.3757933137814,      536.8129,      570.5943467,      0.4041761399821709,      0.361064415,      0.4907677336336533
0.0002,      559.97015,      480.8191723951505,      461.6856566939417,      495.8235379,      0.4105437054017922,      0.3740600158899383,      0.4975082483193347
0.0003,      577.5743,      509.7272111,      493.25608104673057,      522.5712008,      0.4174267125146089,      0.3880977561691594,      0.5048150270396121
0.0004,      590.7869,      531.4946460542392,      516.9865012524464,      542.6906733,      0.4241135659597878,      0.4017244597672089,      0.5119342998974759
0.0005,      599.4923,      546.0364652005472,      532.8681654973426,      556.108349,      0.430610304,      0.4149521440879766,      0.5188709080656153
0.0006,      606.58496,      557.3775430623697,      545.2563353979886,      566.6490954,      0.4369227782361066,      0.4277925038723396,      0.5256295771329818
0.0007,      612.6037,      566.7939679177773,      555.6224153874108,      575.4535128,      0.4430566550683731,      0.440256919,      0.5322149195382977
0.0008,      618.3843,      575.4317710439593,      565.1768418003259,      583.606171,      0.4490174258258407,      0.4523564615566755,      0.5386314369623761
0.0009,      623.87683,      583.4233576896874,      574.0756245,      591.1997925,      0.45481041,      0.4641019042004046,      0.5448835226794344
0.001,      629.0216,      590.8025512410195,      582.3541304570733,      598.2452082,      0.4604407614326736,      0.4755037264430939,      0.5509754638680135
0.002,      660.48395,      622.7633607801472,      614.8827831627273,      630.2233637,      0.5088245065964774,      0.5727328036558106,      0.603958676
0.003,      670.8823,      647.7727736499803,      647.6457468380634,      653.5183985,      0.5455620669072633,      0.645209034,      0.6449380374915066
0.004,      678.0487,      662.0811008864026,      666.8501193804893,      667.2652553,      0.5737472873513023,      0.6995652320718335,      0.6767702506439832
0.005,      684.35583,      672.5123979064117,      680.5349461862307,      677.478893,      0.5956347324100125,      0.7407474097395834,      0.7016605789194443
0.01,      705.9089,      696.4713212555263,      707.0240266894857,      701.4688923,      0.6548854397620119,      0.8475370153527138,      0.7688607117165347
0.011,      710.12317,      705.8684562492427,      721.5948164637045,      710.8637247,      0.6615403275640226,      0.8596616240459127,      0.7763139010910436
0.012,      714.04004,      710.1129276481767,      726.3881313111801,      715.1635067,      0.6673178326745575,      0.8704626675565947,      0.7827786501812284
0.013,      717.8067,      714.1105533458565,      730.8464684423018,      719.2185688,      0.6724039631919982,      0.8802700585818997,      0.788477321
0.014,      721.4093,      717.8699932087652,      734.9960070400127,      723.0363234,      0.6769365125134453,      0.8893054404251757,      0.7935725970877385
** ... 376 like lines cut
*Density
 7.85e-09,