** MATERIALS
** 
*Material, name=DP1000
*Depvar
     2,
*User Material, constants=6749
** Young's Modulus, Poisson Ratio
 210000,        0.3,          0.0,         0.0,            0.0,            0.0,         0.0,         0.0,         0.0,         0.0,         0.0,         0.0,         0.0,         0.0,         0.0,         0.0,   0.
** Flow curves along 0, 45, 90 and biaxial; r-values along 0, 45 and 90; Temperature Softening and Dynamic Strain Aging parameters
0.0,      276.5499752,      311.3563602,      276.5499752,      387.0559429969925,      0.3961640965328839,      0.3447016950309489,      0.4823122157890935,      0.0,      0.0,      0.0,      0.0,      0.0,      0.0,      0.0,      0.0,      0.0
0.00011,      464.79175748106434,      399.09410915587705,      383.2127262115248,      487.1453048174808,      0.4041761399821709,      0.361064414671759,      0.4907677336336533,      3.315275445281233,      0.0045380588694196,      1.7619458886144667e-06,      0.3663283627470407,      399.999999999918,      69.57303984400978,      1.2247706862187036,      582.107810648184,      199.999925339777
0.0002,      578.9929227857886,      510.9791896848459,      494.46760364356646,      553.3592022329477,      0.4105437054017922,      0.3740600158899383,      0.4975082483193347,      2.4418512338568665,      0.0099181142498921,      0.7516418127692587,      0.0531191939094293,      396.4841396975737,      66.07841443217418,      0.4466168683787259,      520.2882230911313,      191.10853606996872
0.0003,      628.6112194921564,      565.5228604590036,      550.0858516214282,      575.1764555011814,      0.4174267125146089,      0.3880977561691594,      0.5048150270396121,      2.2597535764157954,      0.0099999847463705,      0.7070723463320557,      0.0709450855427726,      328.8004458720444,      50.00071714054391,      0.4281973635581944,      516.9569335560691,      199.9994803056722
0.0004,      653.1743003794115,      594.9317216234709,      580.5842563669079,      579.8155416869427,      0.4241135659597878,      0.4017244597672089,      0.5119342998974759,      2.145750980793416,      0.0099999895423836,      0.7066081103689413,      0.0838548046136291,      325.2951117665801,      50.00010328143672,      0.4056436013249023,      517.5503765369876,      199.99993456650023
0.0005,      669.6384337358439,      615.3159895949582,      601.9348030331234,      584.6336238575645,      0.430610304442602,      0.4149521440879766,      0.5188709080656153,      2.066386536856297,      0.0099999994797096,      0.7128016641452923,      0.0854743744549733,      324.05458669855415,      50.00000150622642,      0.3881292893317645,      517.4361455378495,      199.9993763644977
0.0006,      682.8692873042116,      631.8051832209612,      619.3522546563886,      591.4681511344917,      0.4369227782361066,      0.4277925038723396,      0.5256295771329818,      2.186781899088577,      0.0099999999999999,      0.6317462937421493,      0.1590160957427878,      332.892254442875,      134.87375728907813,      0.4355805747809138,      546.5709067670533,      199.98719333791828
0.0007,      694.373693451125,      646.1429958505029,      634.6279022509698,      595.2933361477376,      0.4430566550683731,      0.440256918903259,      0.5322149195382977,      2.3191024366907445,      0.0099999998770454,      0.5187210274558707,      0.3490184093134449,      371.7107885493245,      199.99994706785907,      0.4185938989869464,      603.6500339279286,      199.9999957693076
0.0008,      704.7000950845701,      659.0058740256178,      648.4471416865541,      604.250534822968,      0.4490174258258407,      0.4523564615566755,      0.5386314369623761,      1.8984587503140915,      0.0099999763246482,      0.7351858337840378,      0.0759224743688137,      320.6329153960112,      50.00334302757778,      0.3455389412822543,      515.3659836064375,      199.9961906914774
0.0009,      714.1053865956255,      670.7166880368657,      661.1255026307645,      609.845271925949,      0.454810410078529,      0.4641019042004046,      0.5448835226794344,      1.8547017087233888,      0.0099993859379583,      0.7422544879444973,      0.0727164619875105,      319.826910272496,      50.00249379561867,      0.3329992517978071,      514.7677056869896,      199.94850133246888
0.001,      722.7448869444363,      681.4685425439704,      672.8450972972555,      617.5772281745964,      0.4604407614326736,      0.4755037264430939,      0.5509754638680135,      1.8152419643681332,      0.0099999735480757,      0.7488265308041072,      0.0669854054125161,      317.60067373985004,      50.00308211707205,      0.3218679826265937,      513.3323599829183,      199.99415002432755
0.002,      783.4464168476738,      756.4594541360777,      756.3111141058819,      695.9111153238505,      0.5088245065964774,      0.5727328036558106,      0.603958675980806,      1.5647793658688485,      0.0099989050083526,      0.7980291414293506,      0.0485158900596926,      290.9296046901533,      50.72614659399573,      0.2454676057533699,      505.5901786216613,      190.55113391995607
0.003,      820.3590849223658,      801.0401702231148,      806.810121036068,      757.7907209486937,      0.5455620669072633,      0.645209033982141,      0.6449380374915066,      1.3257959369748709,      0.0099851516537339,      0.8788772080197427,      0.0661248714009504,      327.5515716379046,      50.00127550425798,      0.1641795402568877,      511.8141292323262,      119.71105295808307
0.004,      846.3932319776574,      831.7455876850674,      841.6676637010676,      808.406229702999,      0.5737472873513023,      0.6995652320718335,      0.6767702506439832,      1.2489425465978112,      0.009975425145391,      0.8965516455248105,      0.0685284800266892,      336.61660130873935,      51.65609731732373,      0.1602671686786159,      516.3855732803542,      86.64122219766018
0.005,      866.2691935240255,      854.6876938038849,      867.6376419144309,      841.6828233879511,      0.5956347324100125,      0.7407474097395834,      0.7016605789194443,      1.429955543572705,      0.009495688584162,      0.7737918547480029,      0.0753883890086515,      267.04766003239354,      66.54381763290333,      0.2474906643517591,      509.1392027431788,      199.99882804879695
0.01,      925.1066477101914,      919.56385718988,      940.0512331738008,      904.7929458601732,      0.6548854397620119,      0.8475370153527138,      0.7688607117165347,      1.067059181534167,      0.0089148763781202,      0.8978960556428066,      0.0545871626299509,      342.73041630290936,      55.08098815127346,      0.2927300896081958,      522.2683750703942,      50.010120590158
0.011,      932.778988571787,      927.6488450471444,      948.9097928387783,      913.966731030093,      0.6615403275640226,      0.8596616240459127,      0.7763139010910436,      1.0493110970518835,      0.0087686790337022,      0.8973994163378939,      0.0577072487585358,      343.2457308595307,      50.23408854994168,      0.2926706178201954,      522.5525371920481,      50.19251453459157
0.012,      939.6863306908916,      934.847676374726,      956.7567929206332,      922.336334569468,      0.6673178326745575,      0.8704626675565947,      0.7827786501812284,      1.2140282859266411,      0.0097435767864786,      0.852383926925743,      0.0736856068858648,      297.97158176560794,      123.5801397380307,      0.1780907453429167,      525.034439387964,      127.39534680771614
0.013,      945.9574334933444,      941.3164709099926,      963.7731818087548,      930.0196026992965,      0.6724039631919982,      0.8802700585818997,      0.788477320623322,      1.1169128444841818,      0.0053879777812431,      0.6869856499574188,      0.0249858536709297,      301.3794247413361,      51.001443435386754,      0.2824735215403046,      541.7319300262421,      199.98154275061964
0.014,      951.6917962412458,      947.1748914203182,      970.0974225389996,      937.1074303926936,      0.6769365125134453,      0.8893054404251757,      0.7935725970877385,      1.0156974326495831,      0.0064752433542417,      0.8067079734495808,      0.0390661580719359,      326.62074572267306,      50.02680232935551,      0.1988784178988986,      530.7524485540871,      149.54082981047983
** ... 376 like lines cut
*Density
 7.85e-09,
